<additional>
  <edgeData id="edgeStats"
            file="../../outputs/edge_data.xml"
            freq="60"
            begin="0"
            end="172800"
            excludeEmpty="false"/>
</additional>
